       8
 i =        1, E =       -14.8365817311
  C        -0.0652054083       -0.0000381201        0.1998940284
  H        -0.4758793464        0.8896454765       -0.3136806693
  H        -0.4759288762       -0.8896799380       -0.3136992518
  H        -0.4757348462       -0.0000011731        1.2272265319
  C         1.4651550209        0.0000118278        0.1997495670
  H         1.8759338266        0.8896763069        0.7133389446
  H         1.8758399435        0.0000115469       -0.8275644392
  H         1.8760336262       -0.8896252512        0.7133232990
       8
 i =        2, E =       -14.8366300520
  C        -0.0615526706        0.0000065668        0.1999185118
  H        -0.4685475584        0.8913200998       -0.3146762730
  H        -0.4685316052       -0.8913375677       -0.3146527163
  H        -0.4683919032       -0.0000291606        1.2291787259
  C         1.4616656934       -0.0000176040        0.1997309069
  H         1.8685300089        0.8913964376        0.7143320292
  H         1.8684329086        0.0000351054       -0.8295901510
  H         1.8686132376       -0.8913721220        0.7143590108
       8
 i =        3, E =       -14.8366303055
  C        -0.0614605913       -0.0000283028        0.1998986208
  H        -0.4685871093        0.8911492201       -0.3145561007
  H        -0.4686001947       -0.8911910202       -0.3145669378
  H        -0.4684275976       -0.0000115295        1.2289722468
  C         1.4614639022        0.0000205080        0.1997523682
  H         1.8686456684        0.8911808135        0.7142088165
  H         1.8685029440        0.0000157251       -0.8293045877
  H         1.8686813768       -0.8911334769        0.7142001255
       8
 i =        4, E =       -14.8366303055
  C        -0.0614605913       -0.0000283028        0.1998986208
  H        -0.4685871093        0.8911492201       -0.3145561007
  H        -0.4686001947       -0.8911910202       -0.3145669378
  H        -0.4684275976       -0.0000115295        1.2289722468
  C         1.4614639022        0.0000205080        0.1997523682
  H         1.8686456684        0.8911808135        0.7142088165
  H         1.8685029440        0.0000157251       -0.8293045877
  H         1.8686813768       -0.8911334769        0.7142001255
