     222
 i =       63, E =      -974.3183773271
  C        15.0249926349        9.9433176334        7.4974762952
  C        15.7302728263        8.7328926207        7.4979015516
  C        17.1134072488        8.7437254527        7.4985274304
  C        17.8334799303        9.9582239971        7.4987187324
  C        19.2790796060        9.9802163582        7.4992618522
  C        20.0292467888        8.7811217216        7.4996569843
  C        21.4014831049        8.7918441790        7.5000714570
  C        22.1286793337       10.0052068024        7.5000729361
  C        23.5677486712       10.0152931362        7.5003919611
  C        24.3158007497        8.8125067963        7.5007114332
  C        25.6875573674        8.8203496616        7.5008289319
  C        26.4207407692       10.0321770932        7.5007013091
  C        27.8587582902       10.0403633192        7.5006716695
  C        28.6065898517        8.8362058923        7.5008121498
  C        29.9778073765        8.8420523031        7.5007144818
  C        30.7147914825       10.0530901296        7.5004767931
  C        32.1507719903       10.0589615073        7.5003408443
  C        32.9046437342        8.8501920301        7.5002998508
  C        34.2739165310        8.8594951896        7.5001771766
  C        34.9963129404       10.0843659737        7.5000779401
  C        36.3991545598       10.1041482273        7.4999712282
  C        39.3157298283       10.1046171974        7.4997849312
  C        40.7186654617       10.0853763970        7.4997553683
  C        41.4419302103        8.8609193857        7.4997248277
  C        42.8113064419        8.8523103658        7.4997382595
  C        43.5645594908       10.0614726424        7.4997007658
  C        45.0006647080       10.0566246174        7.4997408332
  C        45.7391876069        8.8463658623        7.4997629265
  C        47.1105891587        8.8417570511        7.4997953038
  C        47.8575871680       10.0465252416        7.4997741885
  C        49.2957500810       10.0400463116        7.4998191015
  C        50.0318908682        8.8295291424        7.4999131627
  C        51.4039012638        8.8235662919        7.4999834693
  C        52.1506779274       10.0274658191        7.5000041933
  C        53.5895257354       10.0211053074        7.5001409882
  C        54.3248522192        8.8107174004        7.5003368745
  C        55.6969633559        8.8051495588        7.5005977755
  C        56.4432580259       10.0090050164        7.5006473153
  C        57.8827601592       10.0020649559        7.5010365540
  C        58.6131083900        8.7905709517        7.5014517626
  C        59.9855318869        8.7832048421        7.5018879474
  C        60.7329585445        9.9840388830        7.5019656243
  C        62.1787248602        9.9658658961        7.5025800197
  C        62.9020603695        8.7533289737        7.5032596940
  C        64.2852881318        8.7462307988        7.5039065774
  C        64.9873314553        9.9585129295        7.5039223196
  C        14.8936521493       12.4244622988        7.4968315720
  C        15.6953579552       11.1590578121        7.4976050059
  C        17.1142030122       11.1896263306        7.4982833368
  C        17.8289923889       12.4433267899        7.4984788655
  C        19.2383342984       12.4524988521        7.4989841771
  C        19.9731955601       11.2157502874        7.4993501824
  C        21.4063241277       11.2290606071        7.4997830497
  C        22.1191319014       12.4709407509        7.4998127289
  C        23.5389257995       12.4798305847        7.5001152933
  C        24.2689131632       11.2485942294        7.5003308842
  C        25.7022311243       11.2574961563        7.5004643446
  C        26.4149384852       12.4972099301        7.5004081714
  C        27.8351770808       12.5055278345        7.5004452926
  C        28.5622358377       11.2732182867        7.5005144117
  C        29.9956398101       11.2810178025        7.5004392211
  C        30.7044348877       12.5217969442        7.5003261066
  C        32.1235116341       12.5297289898        7.5002107252
  C        32.8458136713       11.2972635950        7.5002198686
  C        34.2744742942       11.3123432830        7.5000788833
  C        34.9949573312       12.5371940850        7.5000154102
  C        36.4187143034       12.5315897913        7.4998918757
  C        37.1267098915       11.2894756429        7.4998947392
  C        38.5874562288       11.2896315077        7.4998086496
  C        39.2947198970       12.5320682497        7.4997559751
  C        40.7184688745       12.5382214373        7.4996825440
  C        41.4397586628       11.3137453950        7.4997137380
  C        42.8684997457       11.2993417506        7.4996938595
  C        43.5897647918       12.5323248288        7.4996537869
  C        45.0088336211       12.5253942198        7.4996393697
  C        45.7188087799       11.2851945740        7.4996872579
  C        47.1523311850       11.2787372562        7.4997210293
  C        47.8776991657       12.5119422466        7.4996396164
  C        49.2980308356       12.5054076645        7.4996996658
  C        50.0122352990       11.2664491852        7.4997868169
  C        51.4455713741       11.2597683193        7.4998506673
  C        52.1711947754       12.4923894115        7.4998168747
  C        53.5913473500       12.4860186697        7.4999181070
  C        54.3061795518       11.2472881112        7.5001433014
  C        55.7396355158       11.2410235472        7.5003935133
  C        56.4673484233       12.4736702940        7.5003482230
  C        57.8870928609       12.4679010656        7.5006594561
  C        58.6025634289       11.2275355851        7.5010469611
  C        60.0357900957       11.2178477212        7.5015029663
  C        60.7677364603       12.4564711061        7.5014731265
  C        62.1770477003       12.4510328467        7.5020469683
  C        62.8948603285       11.1991536861        7.5026228499
  C        64.3137378374       11.1724166806        7.5033327675
  C        65.1123134779       12.4398344807        7.5038519215
  C        14.9932826131       14.9069154827        7.4971879181
  C        15.6792752580       13.6999654361        7.4974588864
  C        17.0983633102       13.6877842363        7.4981452896
  C        17.8016925388       14.9284260922        7.4983746786
  C        19.2475907021       14.9252632075        7.4989203917
  C        19.9573976658       13.6986551591        7.4991778811
  C        21.3906299446       13.7038005170        7.4995908344
  C        22.0975548384       14.9366095301        7.4997454092
  C        23.5370892847       14.9445886501        7.5000375025
  C        24.2537506499       13.7199936104        7.5001626197
  C        25.6871061269       13.7288719733        7.5003260516
  C        26.3904087137       14.9626174841        7.5003665206
  C        27.8295566664       14.9718066191        7.5004137872
  C        28.5471336232       13.7464992417        7.5003833259
  C        29.9796505264       13.7553639251        7.5003248223
  C        30.6849073178       14.9880826687        7.5002968822
  C        32.1255979674       14.9959085798        7.5001807138
  C        32.8408730700       13.7678849693        7.5001435482
  C        34.2729483728       13.7748311979        7.5000187616
  C        34.9830420264       15.0015232157        7.4999369856
  C        36.4278320773       14.9979305025        7.4998317490
  C        37.1388933393       13.7699250338        7.4998276515
  C        38.5738129843       13.7700986457        7.4997377138
  C        39.2841033466       14.9984234772        7.4996527389
  C        40.7287864316       15.0025674956        7.4995829758
  C        41.4395584864       13.7762510348        7.4996475995
  C        42.8715349027       13.7700044059        7.4995765530
  C        43.5856569925       14.9985484997        7.4994999472
  C        45.0260972112       14.9917914604        7.4994782832
  C        45.7322505264       13.7596573359        7.4995504433
  C        47.1646453963       13.7522083213        7.4995760306
  C        47.8806373080       14.9785913275        7.4994227312
  C        49.3194011885       14.9713544000        7.4994483073
  C        50.0236425433       13.7383937416        7.4995735462
  C        51.4566870691       13.7315148261        7.4996226124
  C        52.1728474781       14.9574222995        7.4995046872
  C        53.6114510789       14.9507930985        7.4995523588
  C        54.3170311646       13.7184728973        7.4998523943
  C        55.7502158347       13.7123862790        7.5000155905
  C        56.4640552526       14.9384512823        7.4999018294
  C        57.9032401362       14.9336759546        7.5001269287
  C        58.6127526161       13.7024366026        7.5005766417
  C        60.0458486315       13.7008693651        7.5009403173
  C        60.7525298364       14.9292776937        7.5007565998
  C        62.1982420961       14.9362050288        7.5011178844
  C        62.9046050544       13.6973586923        7.5019046933
  C        64.3236249819       13.7133817904        7.5024964859
  C        65.0065147624       14.9221363837        7.5022061487
  C        15.6827928326       16.1263684417        7.4974556177
  C        17.0659810586       16.1334309526        7.4980582052
  C        19.9825174722       16.1337570204        7.4991113234
  C        21.3548891243       16.1405235529        7.4995135619
  C        24.2704017818       16.1561051694        7.5002043974
  C        25.6426035869       16.1650080111        7.5003545694
  C        28.5642192337       16.1825075461        7.5004341016
  C        29.9371134390       16.1903750977        7.5003780131
  C        32.8648254378       16.2021050459        7.5000886860
  C        34.2398691703       16.2053885841        7.4999882739
  C        37.1687279745       16.2036273497        7.4997205929
  C        38.5426989121       16.2038452836        7.4996360008
  C        41.4710043606       16.2069119709        7.4994869544
  C        42.8458823183       16.2043683593        7.4994416631
  C        45.7723316931       16.1949859975        7.4993317935
  C        47.1449932353       16.1886236898        7.4993342339
  C        50.0659283849       16.1748556766        7.4992789060
  C        51.4380002332       16.1681257953        7.4992973667
  C        54.3566217896       16.1548463328        7.4993971612
  C        55.7285533515       16.1486542174        7.4995258463
  C        58.6427386076       16.1394890242        7.5000072677
  C        60.0149603062       16.1361010550        7.5002773201
  C        62.9306865584       16.1431986199        7.5008348379
  C        64.3138394391       16.1397704261        7.5012879192
  H        15.1272579156       17.0739542237        7.4971656254
  H        17.5921601868       17.0957559046        7.4981852999
  H        19.4518585795       17.0937081746        7.4989127836
  H        21.8767503205       17.1052117496        7.4996231166
  H        23.7389184860       17.1155869441        7.5001734787
  H        26.1624674820       17.1309402348        7.5004528760
  H        28.0332169451       17.1423936888        7.5004968217
  H        30.4578971540       17.1559828226        7.5004038483
  H        32.3377861776       17.1643750588        7.5001210798
  H        34.7626746044       17.1699769645        7.4999217644
  H        36.6427252513       17.1664288185        7.4997040171
  H        39.0683308442       17.1668383760        7.4995443742
  H        40.9475769161       17.1711359955        7.4994360557
  H        43.3724149097       17.1668746497        7.4993514644
  H        45.2504192171       17.1599369590        7.4992392674
  H        47.6751125065       17.1489553010        7.4992162657
  H        49.5446548164       17.1400031092        7.4991370405
  H        51.9684696642       17.1282020247        7.4991792495
  H        53.8349360752       17.1197116936        7.4991203442
  H        56.2581230900       17.1091478431        7.4993836025
  H        58.1184208579       17.1028077110        7.4996755699
  H        60.5433153040       17.0972912612        7.5001898018
  H        62.4019853012       17.1041415317        7.5001851812
  H        64.8667884098       17.0888857374        7.5010535479
  H        15.1871196137        7.7781360356        7.4977290209
  H        17.6519469598        7.7882561749        7.4988013454
  H        19.5108415353        7.8145186810        7.4996281660
  H        21.9355762479        7.8339214512        7.5003327346
  H        23.7960296118        7.8466756472        7.5008303078
  H        26.2190939396        7.8608983111        7.5010794053
  H        28.0852734082        7.8711072944        7.5009917013
  H        30.5083221441        7.8819150739        7.5008198450
  H        32.3813071623        7.8859984086        7.5003790081
  H        34.8393235506        7.9160375371        7.5001507985
  H        40.8770958008        7.9171108103        7.4997406298
  H        43.3351259953        7.8883501033        7.4997161896
  H        45.2096958406        7.8856252691        7.4997866330
  H        47.6328454717        7.8771111967        7.4998279889
  H        49.5019460332        7.8691241441        7.4999180386
  H        51.9253791155        7.8585064592        7.5000700412
  H        53.7949254499        7.8502920936        7.5003099149
  H        56.2182998304        7.8400956927        7.5007603836
  H        58.0813780196        7.8312672829        7.5014587748
  H        60.5062854409        7.8178410987        7.5022426819
  H        62.3661026175        7.7964052015        7.5033444924
  H        64.8310626895        7.7929817114        7.5044908368
  H        13.8926501777       14.8946979116        7.4966180891
  H        65.7925543436       12.4369675193        6.6239273156
  H        14.2155387272       12.4201084210        6.6152364018
  H        14.2136893868       12.4201943050        8.3769806249
  H        13.9243024667        9.9411382871        7.4969005438
  H        65.7901348167       12.4375384171        8.3856737922
  H        66.1071652435       14.9129217034        7.5027035003
  H        66.0880274190        9.9593959107        7.5045310439
  H        38.7995974930        9.1343652563        7.4998189511
  H        36.9156623663        9.1341034670        7.4999703028
