      62
 i =        1, E =      -249.8455577642
  C        14.3252117395       14.9857897692        7.5008054537
  C        15.0036336460       13.7741997246        7.5022405956
  C        16.4224445439       13.7518556878        7.5014286950
  C        17.1328585134       14.9871886503        7.5002036950
  C        16.4058253962       16.1970696330        7.4994517424
  C        15.0223960853       16.2002616903        7.4994069699
  C        17.1469343909       12.5025283425        7.5014706990
  C        16.4202112765       11.2544777567        7.5009696116
  C        15.0013740648       11.2347942553        7.5014426052
  C        14.2084419967       12.5051919139        7.5070945781
  C        14.3206710403       10.0245069306        7.4989369065
  C        15.0155436151        8.8086938750        7.4971462823
  C        16.3989746222        8.8093206413        7.4978535491
  C        17.1283252265       10.0178469946        7.4994505793
  H        16.9384359714       17.1557742025        7.4987038188
  H        14.4736974196       17.1518261153        7.4985858417
  H        14.4650469886        7.8581655303        7.4954431369
  H        16.9298053808        7.8496228287        7.4968534417
  H        13.2245235634       14.9802841417        7.5011406738
  H        13.2199899387       10.0320692039        7.4987521999
  H        13.5222470675       12.5060983047        6.6318218579
  H        13.5364615300       12.5055022308        8.3935153147
  C        18.5794093318       14.9745471603        7.5000622045
  C        19.2846312663       13.7436829836        7.5002391206
  C        20.7175671037       13.7424169243        7.4997592814
  C        21.4250453560       14.9719966091        7.4999223671
  C        20.6897357101       16.1777399160        7.5001030846
  C        19.3169206591       16.1789594229        7.5000170992
  C        21.4441968769       12.4987231887        7.4994370342
  C        20.7152523156       11.2563623172        7.4998017951
  C        19.2823366493       11.2576313626        7.5001277232
  C        18.5556884482       12.5013043426        7.5004668343
  C        18.5749120447       10.0279996171        7.4997200331
  C        19.3102266326        8.8222706730        7.4997481404
  C        20.6830235031        8.8211135325        7.5001267133
  C        21.4204470312       10.0255205287        7.5001409100
  H        21.2173465598       17.1392266196        7.5001647521
  H        18.7910545427       17.1413985166        7.5000214289
  H        18.7827177870        7.8607337754        7.4996315413
  H        21.2089974527        7.8587511942        7.5002179981
  C        22.8716594481       14.9820655667        7.4998325875
  C        23.5797215280       13.7454073597        7.4985290200
  C        24.9985685544       13.7649579218        7.4977348764
  C        25.6793129843       14.9752155206        7.4991936372
  C        24.9845101479       16.1910681896        7.5006075311
  C        23.6010785866       16.1905393473        7.5005455158
  C        25.7914855849       12.4945420094        7.4928961840
  C        24.9961766592       11.2256469237        7.4984896604
  C        23.5773772356       11.2480376194        7.4989764689
  C        22.8529396707       12.4974193625        7.4984914138
  C        22.8669923634       10.0127535578        7.5004607940
  C        23.5939641474        8.8028475358        7.5020241880
  C        24.9773872822        8.7995784439        7.5027513903
  C        25.6745864495       10.0140453652        7.5010446695
  H        25.5350443329       17.1415699692        7.5014354796
  H        23.0702993956       17.1502634961        7.5013211834
  H        23.0612128204        7.8442307439        7.5029939734
  H        25.5259363880        7.8479283559        7.5044599096
  H        26.7799936601       14.9675798882        7.4988560618
  H        26.7752786741       10.0194518191        7.5012449603
  H        26.4776528415       12.4941853479        8.3681925741
  H        26.4634316148       12.4936138272        6.6064459859
      62
 i =        2, E =      -249.8455577642
  C        14.3252117395       14.9857897692        7.5008054537
  C        15.0036336460       13.7741997246        7.5022405956
  C        16.4224445439       13.7518556878        7.5014286950
  C        17.1328585134       14.9871886503        7.5002036950
  C        16.4058253962       16.1970696330        7.4994517424
  C        15.0223960853       16.2002616903        7.4994069699
  C        17.1469343909       12.5025283425        7.5014706990
  C        16.4202112765       11.2544777567        7.5009696116
  C        15.0013740648       11.2347942553        7.5014426052
  C        14.2084419967       12.5051919139        7.5070945781
  C        14.3206710403       10.0245069306        7.4989369065
  C        15.0155436151        8.8086938750        7.4971462823
  C        16.3989746222        8.8093206413        7.4978535491
  C        17.1283252265       10.0178469946        7.4994505793
  H        16.9384359714       17.1557742025        7.4987038188
  H        14.4736974196       17.1518261153        7.4985858417
  H        14.4650469886        7.8581655303        7.4954431369
  H        16.9298053808        7.8496228287        7.4968534417
  H        13.2245235634       14.9802841417        7.5011406738
  H        13.2199899387       10.0320692039        7.4987521999
  H        13.5222470675       12.5060983047        6.6318218579
  H        13.5364615300       12.5055022308        8.3935153147
  C        18.5794093318       14.9745471603        7.5000622045
  C        19.2846312663       13.7436829836        7.5002391206
  C        20.7175671037       13.7424169243        7.4997592814
  C        21.4250453560       14.9719966091        7.4999223671
  C        20.6897357101       16.1777399160        7.5001030846
  C        19.3169206591       16.1789594229        7.5000170992
  C        21.4441968769       12.4987231887        7.4994370342
  C        20.7152523156       11.2563623172        7.4998017951
  C        19.2823366493       11.2576313626        7.5001277232
  C        18.5556884482       12.5013043426        7.5004668343
  C        18.5749120447       10.0279996171        7.4997200331
  C        19.3102266326        8.8222706730        7.4997481404
  C        20.6830235031        8.8211135325        7.5001267133
  C        21.4204470312       10.0255205287        7.5001409100
  H        21.2173465598       17.1392266196        7.5001647521
  H        18.7910545427       17.1413985166        7.5000214289
  H        18.7827177870        7.8607337754        7.4996315413
  H        21.2089974527        7.8587511942        7.5002179981
  C        22.8716594481       14.9820655667        7.4998325875
  C        23.5797215280       13.7454073597        7.4985290200
  C        24.9985685544       13.7649579218        7.4977348764
  C        25.6793129843       14.9752155206        7.4991936372
  C        24.9845101479       16.1910681896        7.5006075311
  C        23.6010785866       16.1905393473        7.5005455158
  C        25.7914855849       12.4945420094        7.4928961840
  C        24.9961766592       11.2256469237        7.4984896604
  C        23.5773772356       11.2480376194        7.4989764689
  C        22.8529396707       12.4974193625        7.4984914138
  C        22.8669923634       10.0127535578        7.5004607940
  C        23.5939641474        8.8028475358        7.5020241880
  C        24.9773872822        8.7995784439        7.5027513903
  C        25.6745864495       10.0140453652        7.5010446695
  H        25.5350443329       17.1415699692        7.5014354796
  H        23.0702993956       17.1502634961        7.5013211834
  H        23.0612128204        7.8442307439        7.5029939734
  H        25.5259363880        7.8479283559        7.5044599096
  H        26.7799936601       14.9675798882        7.4988560618
  H        26.7752786741       10.0194518191        7.5012449603
  H        26.4776528415       12.4941853479        8.3681925741
  H        26.4634316148       12.4936138272        6.6064459859
