     224
 i =       24, E =      -985.6758216241
  C        15.0051176025       10.0174511800        7.5013511825
  C        15.7024834043        8.8024670546        7.5010121631
  C        17.0857097276        8.8043749079        7.5006074840
  C        17.8135781523       10.0141775233        7.5004953881
  C        19.2593518331       10.0267638402        7.5002057056
  C        20.0019153665        8.8229144769        7.4998547036
  C        21.3742575156        8.8249619777        7.4996464105
  C        22.1091325994       10.0336817789        7.4997111481
  C        23.5485078356       10.0348258835        7.4995375166
  C        24.2894604755        8.8277835985        7.4992402268
  C        25.6614980705        8.8274918604        7.4991654310
  C        26.4017145681       10.0347263407        7.4993477635
  C        27.8405053477       10.0346225571        7.4993788989
  C        28.5815613362        8.8274525524        7.4991645955
  C        29.9536929767        8.8273066571        7.4992126843
  C        30.6947892460       10.0344318576        7.4994700674
  C        32.1334598913       10.0344640958        7.4995314000
  C        32.8745501684        8.8273075030        7.4994580536
  C        34.2466618355        8.8272820570        7.4995419824
  C        34.9877963357       10.0344413874        7.4997371594
  C        36.4264573927       10.0345124370        7.4998029191
  C        37.1675622723        8.8273574482        7.4997759137
  C        38.5396392915        8.8273617379        7.4998301426
  C        39.2807321613       10.0345385575        7.4999331790
  C        40.7193980408       10.0345787684        7.4999931946
  C        41.4605573599        8.8274430523        7.4998837912
  C        42.8326343159        8.8275144381        7.4998950988
  C        43.5736732647       10.0347101435        7.4999886561
  C        45.0123349309       10.0347201598        7.4999771436
  C        45.7535381575        8.8276031458        7.4998118630
  C        47.1256498534        8.8277064944        7.4997956831
  C        47.8666723430       10.0349046988        7.4998864445
  C        49.3053424429       10.0349555016        7.4998327544
  C        50.0465079817        8.8278738803        7.4996170192
  C        51.4186394794        8.8280990075        7.4995342252
  C        52.1596257917       10.0353113189        7.4996484458
  C        53.5984148455       10.0354981727        7.4995504276
  C        54.3386954749        8.8283053821        7.4992048475
  C        55.7107321177        8.8286719402        7.4990384216
  C        56.4516171691       10.0357537759        7.4992420266
  C        57.8909909933       10.0346852894        7.4989991615
  C        58.6259258042        8.8260037181        7.4985252850
  C        59.9982665087        8.8240272459        7.4982962299
  C        60.7407685558       10.0279115804        7.4985685601
  C        62.1865417399       10.0153866801        7.4983127258
  C        62.9144692073        8.8056167701        7.4976820337
  C        64.2976949743        8.8037766074        7.4973165717
  C        64.9949990170       10.0187989919        7.4975060382
  C        14.8895797748       12.4993295364        7.5016977710
  C        15.6832838431       11.2288398036        7.5012413392
  C        17.1022665626       11.2502347964        7.5008563764
  C        17.8249616104       12.4994010872        7.5007906577
  C        19.2342885276       12.4994319994        7.5005236883
  C        19.9612471824       11.2578828588        7.5001964264
  C        21.3944304533       11.2619931103        7.4999931308
  C        22.1149485049       12.4995047616        7.5000619537
  C        23.5347344380       12.4995419717        7.4999028334
  C        24.2572181151       11.2638561155        7.4996865481
  C        25.6905588256       11.2639555548        7.4996211973
  C        26.4107108139       12.4996212620        7.4996921961
  C        27.8308654940       12.4996621072        7.4997290689
  C        28.5509615838       11.2638053955        7.4995480113
  C        29.9841567165       11.2638072799        7.4995727565
  C        30.7039755885       12.4997457830        7.4997899974
  C        32.1242224300       12.4997869052        7.4998024434
  C        32.8440434414       11.2638418751        7.4997306659
  C        34.2772438275       11.2638574887        7.4998088565
  C        34.9970055565       12.4998676733        7.4999644643
  C        36.4172746015       12.4999078581        7.5000331281
  C        37.1370062711       11.2639286718        7.4999706489
  C        38.5701966423       11.2639579328        7.5000307718
  C        39.2898725382       12.4999872506        7.5001537787
  C        40.7101217687       12.5000266798        7.5002154086
  C        41.4298659325       11.2640372462        7.5000893423
  C        42.8630564025       11.2640869558        7.5000956340
  C        43.5827196998       12.5001057430        7.5002673399
  C        45.0029887440       12.5001456301        7.5002418644
  C        45.7228188656       11.2641762558        7.5000849428
  C        47.1560194492       11.2642416061        7.5000732602
  C        47.8757719322       12.5002256650        7.5002263952
  C        49.2960187554       12.5002663795        7.5001920903
  C        50.0159062578       11.2643708302        7.4999913912
  C        51.4491008795       11.2644532368        7.4999270843
  C        52.1691287391       12.5003493332        7.5000877734
  C        53.5892833846       12.5003896861        7.5000520272
  C        54.3095025980       11.2647657612        7.4997192306
  C        55.7428415758       11.2647452372        7.4995822300
  C        56.4652596546       12.5004680717        7.4998225411
  C        57.8850455755       12.5005048750        7.4996797465
  C        58.6056289406       11.2630321987        7.4992692504
  C        60.0388107287       11.2589934735        7.4990764274
  C        60.7657055878       12.5005763970        7.4992571984
  C        62.1750325542       12.5006064927        7.4990731280
  C        62.8977903411       11.2514759601        7.4984886593
  C        64.3167724220       11.2301517117        7.4981790145
  C        65.1104145243       12.5006768897        7.4982854391
  C        15.0049939184       14.9812074325        7.5020329280
  C        15.6832213819       13.7698550746        7.5015716165
  C        17.1022034412       13.7485314811        7.5011703201
  C        17.8134512332       14.9846212827        7.5011579993
  C        19.2592244606       14.9720970592        7.5008062451
  C        19.9611827927       13.7410153432        7.5005324691
  C        21.3943646179       13.7369772134        7.5002870662
  C        22.1090022236       14.9653243532        7.5003207862
  C        23.5483761265       14.9642563768        7.5001414462
  C        24.2571520971       13.7352650848        7.4999548840
  C        25.6904911344       13.7352449802        7.4999105573
  C        26.4015785621       14.9645127915        7.4998752204
  C        27.8403676685       14.9647000573        7.4999051243
  C        28.5508930720       13.7355583824        7.4998010610
  C        29.9840877393       13.7356411932        7.4998179107
  C        30.6946512032       14.9650567468        7.4999607451
  C        32.1333213829       14.9651079142        7.5000164211
  C        32.8439746207       13.7357711861        7.4999617333
  C        34.2771752452       13.7358369438        7.5000568303
  C        34.9876589622       14.9652932059        7.5001998779
  C        36.4263207316       14.9653035420        7.5002914882
  C        37.1369377598       13.7359267925        7.5002116140
  C        38.5701282885       13.7359766530        7.5002710569
  C        39.2805961905       14.9654351612        7.5004615769
  C        40.7192621698       14.9654753752        7.5005130180
  C        41.4297977477       13.7360559845        7.5003761885
  C        42.8629881808       13.7360850866        7.5003821480
  C        43.5735372601       14.9655012330        7.5005992080
  C        45.0121983970       14.9655718980        7.5006395872
  C        45.7227507398       13.7361556640        7.5004181308
  C        47.1559511504       13.7361709093        7.5004504537
  C        47.8665349730       14.9655485462        7.5006358016
  C        49.3052056673       14.9655803488        7.5006823749
  C        50.0158379043       13.7362047562        7.5004042742
  C        51.4490330352       13.7362062715        7.5003980367
  C        52.1594896553       14.9653888951        7.5006133015
  C        53.5982804760       14.9652847103        7.5005855051
  C        54.3094357266       13.7360552192        7.5002571695
  C        55.7427764466       13.7361541692        7.5001538476
  C        56.4514872144       14.9651841276        7.5004129692
  C        57.8908624707       14.9663277789        7.5002651528
  C        58.6055641868       13.7380162191        7.4998806445
  C        60.0387475012       13.7421258551        7.4997337927
  C        60.7406434610       14.9732445300        7.4998909184
  C        62.1864171905       14.9858300783        7.4996482950
  C        62.8977281251       13.7497724161        7.4991854903
  C        64.3167108779       13.7711668500        7.4988706548
  C        64.9948778774       14.9825550313        7.4989599603
  C        15.7022972170       16.1962302731        7.5020061237
  C        17.0855230857       16.1943909171        7.5015786404
  C        20.0017261129       16.1759817553        7.5008230299
  C        21.3740668376       16.1740056848        7.5005777546
  C        24.2892608181       16.1713384764        7.5000904677
  C        25.6612975061       16.1717054050        7.5000142805
  C        28.5813536502       16.1719125786        7.4999308418
  C        29.9534851873       16.1721381213        7.4999604521
  C        32.8743436055       16.1723063003        7.5001733999
  C        34.2464553351       16.1724099944        7.5002681960
  C        37.1673596869       16.1724992828        7.5005060688
  C        38.5394367030       16.1725708232        7.5005717637
  C        41.4603553109       16.1726520690        7.5007254488
  C        42.8324324031       16.1726562781        7.5007613105
  C        45.7533332080       16.1727310353        7.5008517937
  C        47.1254449147       16.1727052854        7.5009034580
  C        50.0463022997       16.1727053272        7.5009219470
  C        51.4184339544       16.1725590611        7.5009303439
  C        54.3384974140       16.1725189427        7.5008480789
  C        55.7105350215       16.1722266877        7.5007547657
  C        58.6257381914       16.1750472208        7.5004582108
  C        59.9980803725       16.1770941965        7.5002861611
  C        62.9142862135       16.1956323125        7.4997604795
  C        64.2975125969       16.1975394088        7.4994188300
  H        15.1528840287       17.1473921116        7.5023984835
  H        17.6178122225       17.1533514967        7.5016164235
  H        19.4771624639       17.1392604955        7.5010358507
  H        21.9021440191       17.1352849891        7.5006231502
  H        23.7638363055       17.1341351517        7.5001690425
  H        26.1871762032       17.1343259467        7.4999795998
  H        28.0554677221       17.1345477866        7.4999622425
  H        30.4791259219       17.1349154945        7.5000095160
  H        32.3484553130       17.1349481227        7.5002307025
  H        34.7721686539       17.1351508064        7.5003850726
  H        36.6414875297       17.1351506045        7.5006012941
  H        39.0652005073       17.1352820256        7.5007403755
  H        40.9345392396       17.1353346242        7.5008628516
  H        43.3582524697       17.1353358296        7.5009306556
  H        45.2275654151       17.1354417066        7.5010539716
  H        47.6512799393       17.1353758723        7.5010838422
  H        49.5206055018       17.1354516545        7.5011678316
  H        51.9442660370       17.1352234790        7.5011411984
  H        53.8125648814       17.1351098379        7.5011288299
  H        56.2359078553       17.1350513443        7.5009832567
  H        58.0976097174       17.1362982913        7.5007375000
  H        60.5225943793       17.1403997627        7.5004342342
  H        62.3819491565       17.1545663261        7.5000923296
  H        64.8468755209       17.1487303837        7.4994817940
  H        15.1531209848        7.8512757759        7.5011195039
  H        17.6180472662        7.8454411269        7.5003751475
  H        19.4774017189        7.8596087056        7.4998124357
  H        21.9023863733        7.8637111198        7.4994198580
  H        23.7640880131        7.8649587213        7.4990622261
  H        26.1874309307        7.8649011394        7.4989133730
  H        28.0557295481        7.8647879625        7.4989823588
  H        30.4793899924        7.8645604158        7.4990599381
  H        32.3487153795        7.8646367839        7.4993128249
  H        34.7724298444        7.8645714769        7.4994706140
  H        36.6417423117        7.8646778427        7.4996766280
  H        39.0654554950        7.8646792528        7.4997847549
  H        40.9347934475        7.8647319084        7.4998137564
  H        43.3585063550        7.8648630595        7.4998184358
  H        45.2278246013        7.8648624595        7.4997343716
  H        47.6515378731        7.8650645292        7.4996665801
  H        49.5208669735        7.8650966616        7.4995067355
  H        51.9445251064        7.8654636365        7.4993506105
  H        53.8128164087        7.8656850465        7.4990484199
  H        56.2361562617        7.8658750987        7.4987773009
  H        58.0978482956        7.8647246369        7.4982422557
  H        60.5228298146        7.8607484095        7.4978711323
  H        62.3821795654        7.8466564896        7.4974715820
  H        64.8471075408        7.8526144737        7.4967643151
  H        13.9043116307       14.9761269282        7.5024255352
  H        65.7892009219       12.5009444308        6.6172070004
  H        14.2101769360       12.4994300730        6.6211006374
  H        14.2108638397       12.4991940767        8.3828310010
  H        13.9044351719       10.0224734823        7.5017266963
  H        65.7897469320       12.5004431885        8.3789373644
  H        66.0955603263       14.9775321214        7.4986442323
  H        66.0956813079       10.0238787788        7.4971517073
